9
dsgdb9_000061     10.08908  4.54124  3.13490  2.7706   38.09  -0.25607  -0.06404  0.19203  384.4806   0.06766135858	-263.278860	-263.273596	-263.272651	-263.306848		17.976
  N    -0.56178800     1.28953700    -0.05287600
  C    -0.52978100    -0.07246300    -0.00931200
  N    -1.47784300    -0.93411100     0.01572400
  C     0.86767000    -0.63585100    -0.01519100
  O     1.85599100     0.05520900     0.02113500
  H    -1.40783400     1.78836600     0.16219000
  H     0.31824300     1.76248700     0.08952000
  H    -2.39897200    -0.48992500     0.02964900
  H     0.89072400    -1.74069500    -0.04335700
173.1273      287.4083      317.5122      466.0955      519.6406      564.3449      632.6164      884.9098      905.8842      1044.5012      1093.7072      1143.0509      1366.8935      1429.8561      1608.1987      1721.1177      1813.2827      2981.7985      3446.8665      3582.5896      3716.5063   
NC(=N)C=O   NC(=N)C=O
InChI=1S/C2H4N2O/c3-2(4)1-5/h1H,(H3,3,4)   InChI=1S/C2H4N2O/c3-2(4)1-5/h1H,(H3,3,4)