8
dsgdb9_000058     10.68388  4.31972  3.07989  5.1805   38.31  -0.27396  -0.04382  0.23014  384.5631   0.05662254711	-242.195726	-242.190589	-242.189645	-242.223508		17.461
  N     1.02039200     1.13132200    -0.05951400
  C     0.44258700    -0.11809100    -0.00216500
  N     0.99496300    -1.26706000     0.00873400
  C    -1.01362100    -0.06558700    -0.00470400
  N    -2.16588700     0.01588700     0.00531200
  H     2.00320800     1.19934700     0.15410400
  H     0.46254400     1.93141000     0.19362500
  H     2.01417100    -1.18973300     0.01176100
205.4537      297.0637      372.6324      419.8147      474.2579      618.7652      716.9324      796.9525      866.1971      1100.2790      1121.1347      1399.6802      1636.7579      1713.4627      2364.8878      3460.8377      3585.1330      3704.1787   
NC(=N)C#N   NC(=N)C#N
InChI=1S/C2H3N3/c3-1-2(4)5/h(H3,4,5)   InChI=1S/C2H3N3/c3-1-2(4)5/h(H3,4,5)