10
dsgdb9_000185     9.05565   3.97248  2.76121  4.6980   44.73  -0.19593  0.02863   0.22456  443.7853   0.07420335047	-301.362801	-301.357479	-301.356535	-301.392438		18.464
  N     2.04011400    -0.16302100    -0.00007100
  C     0.78020300    -0.02273900     0.00002700
  N    -0.06012500     1.08178500     0.00018900
  C    -1.39233000     0.66263600    -0.00005200
  C    -1.36220700    -0.67251900    -0.00005100
  O    -0.05570500    -1.11582000     0.00004100
  H     2.51156700     0.73734300    -0.00000500
  H     0.26677400     2.02984000    -0.00055100
  H    -2.21921100     1.35125700    -0.00007900
  H    -2.12740900    -1.42749300    -0.00006000
26.4417      284.4688      469.6998      579.9095      685.4556      710.9772      734.8185      742.4117      779.3185      907.4610      921.1533      1028.2136      1061.5441      1136.1434      1175.5719      1243.7373      1370.0821      1419.6755      1666.5643      1778.7883      3286.2853      3316.2556      3534.7800      3711.7542   
N=C1NC=CO1   [NH][C@@H]1NC=CO1
InChI=1S/C3H4N2O/c4-3-5-1-2-6-3/h1-2H,(H2,4,5)   InChI=1S/C3H5N2O/c4-3-5-1-2-6-3/h1-5H